  Page 1                                    Thu Oct 19 18:05:58 2017

  ******************************************************************
  *                           E P A N E T                          *
  *                   Hydraulic and Water Quality                  *
  *                   Analysis for Pipe Networks                   *
  *                         Version 2.00.12                        *
  ******************************************************************
  
  Analysis begun Thu Oct 19 18:05:58 2017

  WARNING: Negative pressures at 0:00:00 hrs.
  
  WARNING: Negative pressures at 1:00:00 hrs.
  
  WARNING: Negative pressures at 1:45:22 hrs.
  WARNING: Node 11 disconnected at 1:45:22 hrs
  WARNING: System disconnected because of Link 12
  
  WARNING: Negative pressures at 2:00:00 hrs.
  
  WARNING: Negative pressures at 2:03:07 hrs.
  WARNING: Node 11 disconnected at 2:03:07 hrs
  WARNING: System disconnected because of Link 12
  
  WARNING: Negative pressures at 3:00:00 hrs.
  
  WARNING: Negative pressures at 3:12:08 hrs.
  WARNING: Node 11 disconnected at 3:12:08 hrs
  WARNING: System disconnected because of Link 12
  
  WARNING: Negative pressures at 4:00:00 hrs.
  
  WARNING: Negative pressures at 4:07:55 hrs.
  WARNING: Node 11 disconnected at 4:07:55 hrs
  WARNING: System disconnected because of Link 12
  
  WARNING: Negative pressures at 5:00:00 hrs.
  
  WARNING: Negative pressures at 5:05:46 hrs.
  WARNING: Node 11 disconnected at 5:05:46 hrs
  WARNING: System disconnected because of Link 12
  
  WARNING: Negative pressures at 6:00:00 hrs.
  
  WARNING: Negative pressures at 6:04:04 hrs.
  WARNING: Node 11 disconnected at 6:04:04 hrs
  WARNING: System disconnected because of Link 12
  
  WARNING: Negative pressures at 7:00:00 hrs.
  
  WARNING: Negative pressures at 7:03:12 hrs.
  WARNING: Node 11 disconnected at 7:03:12 hrs
  WARNING: System disconnected because of Link 12
  
  WARNING: Negative pressures at 8:00:00 hrs.
  
  WARNING: Negative pressures at 8:02:47 hrs.
  WARNING: Node 11 disconnected at 8:02:47 hrs
  WARNING: System disconnected because of Link 12
  
  WARNING: Negative pressures at 9:00:00 hrs.
  
  WARNING: Negative pressures at 9:02:37 hrs.
  
  WARNING: Negative pressures at 10:00:00 hrs.
  WARNING: Node 11 disconnected at 10:00:00 hrs
  WARNING: System disconnected because of Link 12
  
  WARNING: Negative pressures at 11:00:00 hrs.
  
  WARNING: Negative pressures at 11:02:45 hrs.
  WARNING: Node 11 disconnected at 11:02:45 hrs
  WARNING: System disconnected because of Link 12
  
  WARNING: Negative pressures at 12:00:00 hrs.
  
  WARNING: Negative pressures at 12:03:00 hrs.
  WARNING: Node 11 disconnected at 12:03:00 hrs
  WARNING: System disconnected because of Link 12
  
  WARNING: Negative pressures at 13:00:00 hrs.
  
  WARNING: Negative pressures at 13:02:59 hrs.
  
  WARNING: Negative pressures at 14:00:00 hrs.
  WARNING: Node 11 disconnected at 14:00:00 hrs
  WARNING: System disconnected because of Link 12
  
  WARNING: Negative pressures at 15:00:00 hrs.
  
  WARNING: Negative pressures at 15:02:56 hrs.
  
  WARNING: Negative pressures at 16:00:00 hrs.
  WARNING: Node 11 disconnected at 16:00:00 hrs
  WARNING: System disconnected because of Link 12
  
  WARNING: Negative pressures at 17:00:00 hrs.
  
  WARNING: Negative pressures at 17:03:09 hrs.
  WARNING: Node 11 disconnected at 17:03:09 hrs
  WARNING: System disconnected because of Link 12
  
  WARNING: Negative pressures at 18:00:00 hrs.
  
  WARNING: Negative pressures at 18:03:15 hrs.
  WARNING: Node 11 disconnected at 18:03:15 hrs
  WARNING: System disconnected because of Link 12
  
  WARNING: Negative pressures at 19:00:00 hrs.
  
  WARNING: Negative pressures at 19:03:52 hrs.
  WARNING: Node 11 disconnected at 19:03:52 hrs
  WARNING: System disconnected because of Link 12
  
  WARNING: Negative pressures at 20:00:00 hrs.
  
  WARNING: Negative pressures at 20:04:12 hrs.
  WARNING: Node 11 disconnected at 20:04:12 hrs
  WARNING: System disconnected because of Link 12
  
  WARNING: Negative pressures at 21:00:00 hrs.
  
  WARNING: Negative pressures at 21:05:22 hrs.
  
  WARNING: Negative pressures at 22:00:00 hrs.
  WARNING: Node 11 disconnected at 22:00:00 hrs
  WARNING: System disconnected because of Link 12
  
  WARNING: Negative pressures at 23:00:00 hrs.
  
  WARNING: Negative pressures at 23:07:50 hrs.
  WARNING: Node 11 disconnected at 23:07:50 hrs
  WARNING: System disconnected because of Link 12
  
  WARNING: Negative pressures at 24:00:00 hrs.
  
  Analysis ended Thu Oct 19 18:05:59 2017
